 72
 C                  7.87199244    0.14782417   -0.60775902
 C                  7.33402032    1.36659539   -0.17479845
 C                  5.95596725    1.53005460   -0.02833908
 C                  5.09336025    0.43004567   -0.31388716
 C                  5.64456941   -0.80269819   -0.75797466
 C                  7.04314900   -0.92183361   -0.90083575
 C                  3.68389389    0.55939338   -0.15646709
 C                  2.81811418   -0.53108376   -0.37395180
 C                  3.39557768   -1.73734557   -0.88214791
 C                  4.74412500   -1.86318921   -1.06582404
 C                  5.36966860    2.77810787    0.39797044
 C                  4.02759199    2.92681966    0.50490426
 C                  3.12704903    1.83660422    0.21157628
 N                  1.82905585    2.06258726    0.24885291
 C                  0.95740323    1.03856777    0.02594268
 C                  1.39691583   -0.33052426   -0.13420699
 C                 -0.42315438    1.36780427   -0.00387014
 C                 -1.37782006    0.34063330   -0.13522872
 C                 -0.93849920   -1.02881169    0.02256263
 C                  0.44210918   -1.35799187   -0.00618857
 C                 -2.79873086    0.54170737   -0.37627899
 C                 -3.66476930   -0.54926420   -0.16229571
 C                 -3.10837576   -1.82726487    0.20367103
 N                 -1.81042677   -2.05329828    0.24216648
 C                 -5.07404273   -0.41962066   -0.32123078
 C                 -5.93697571   -1.52029348   -0.03925390
 C                 -5.35119597   -2.76927602    0.38504067
 C                 -4.00925530   -2.91816468    0.49340701
 C                 -3.37561677    1.74908412   -0.88249398
 C                 -4.72393709    1.87528824   -1.06759699
 C                 -5.62473955    0.81408402   -0.76327840
 C                 -7.02313313    0.93349388   -0.90768144
 C                 -7.85231409   -0.13685124   -0.61807421
 C                 -7.31484749   -1.35656197   -0.18714367
 C                  0.83321265   -2.77663568    0.21419618
 C                 -0.81444784    2.78600962    0.21896630
 C                 -1.58447993    3.12670927    1.34071699
 C                 -1.98678977    4.43412158    1.56395994
 C                 -1.63095746    5.44465174    0.66110849
 C                 -0.85392597    5.12440123   -0.45826376
 C                 -0.44770459    3.80650927   -0.66056077
 C                  0.46746191   -3.79539301   -0.66775539
 C                  0.87360834   -5.11366687   -0.46773317
 C                  1.64949954   -5.43611977    0.65178948
 C                  2.00428253   -4.42738650    1.55706764
 C                  1.60207558   -3.11957549    1.33608029
 H                  0.58063139   -5.87143690   -1.18128854
 H                 -0.13439081   -3.55461927   -1.53529521
 H                  1.89384485   -2.34603981    2.03726511
 H                  2.59691115   -4.69378402    2.42405209
 H                  3.58066590    3.86814165    0.80164684
 H                  6.03321607    3.60727462    0.61902055
 H                  7.99283367    2.19876268    0.04798097
 H                  8.94536451    0.04579508   -0.71667037
 H                  7.46054062   -1.86212867   -1.24361680
 H                  5.14694935   -2.78962491   -1.46068809
 H                  2.75680822   -2.56470646   -1.14439489
 H                 -2.73658282    2.57706836   -1.14209595
 H                 -5.12627978    2.80260027   -1.46089298
 H                 -7.44011311    1.87454128   -1.24889244
 H                 -8.92554725   -0.03461946   -0.72814696
 H                 -7.97390521   -2.18925856    0.03291185
 H                 -6.01500200   -3.59895965    0.60335552
 H                 -3.56265815   -3.86011916    0.78863254
 H                 -0.56008416    5.88364539   -1.16990373
 H                  0.15514886    3.56744271   -1.52788260
 H                 -1.87707057    2.35173957    2.03997455
 H                 -2.58037706    4.69882248    2.43080617
 O                 -0.00080169   -0.64476144    1.14112596
 O                 -0.35912207    0.45756896    1.06504078
 H                 -1.95040985    6.45248040    0.82582553
 H                  1.96888402   -6.44424921    0.81478852

