 72
 C                  7.87007600   -0.14097300   -0.70462800
 C                  7.34600600   -1.35161900   -0.27491100
 C                  5.95083800   -1.52657100   -0.13638100
 C                  5.08745000   -0.42858600   -0.43357300
 C                  5.63635400    0.80741300   -0.88141800
 C                  7.02849900    0.93133300   -1.01208200
 C                  3.68061900   -0.56750000   -0.29064000
 C                  2.79967200    0.53251800   -0.52340100
 C                  3.37756900    1.73277700   -1.03181600
 C                  4.72894900    1.86341500   -1.20537100
 C                  5.37192500   -2.75828000    0.28304200
 C                  4.00927800   -2.90154700    0.38014300
 C                  3.13708400   -1.82244200    0.08487200
 N                  1.79499800   -2.04086000    0.12760700
 C                  0.95206100   -1.03669400   -0.09864300
 C                  1.39225100    0.32985600   -0.27558000
 C                 -0.43176700   -1.34860900   -0.12238100
 C                 -1.39055400   -0.32991800   -0.27830200
 C                 -0.95068100    1.03603900   -0.09591300
 C                  0.43288300    1.34877400   -0.12456900
 C                 -2.79766400   -0.53240300   -0.52671400
 C                 -3.67898600    0.56660700   -0.29073000
 C                 -3.13604300    1.82015500    0.09029100
 N                 -1.79387100    2.03907300    0.13408500
 C                 -5.08563000    0.42757900   -0.43500100
 C                 -5.94962100    1.52412000   -0.13425800
 C                 -5.37143000    2.75428300    0.29050700
 C                 -4.00883700    2.89761100    0.38940600
 C                 -3.37452600   -1.73145700   -1.03885900
 C                 -4.72574700   -1.86200500   -1.21387600
 C                 -5.63369700   -0.80716900   -0.88744300
 C                 -7.02570300   -0.93110100   -1.01951500
 C                 -7.86791000    0.13987000   -0.70895100
 C                 -7.34467800    1.34914000   -0.27447500
 C                  0.83264100    2.75585700    0.14145900
 C                 -0.83364000   -2.75471500    0.14540500
 C                 -0.45604500   -3.81107900   -0.69417500
 C                 -0.88336100   -5.10900100   -0.43091300
 C                 -1.67323100   -5.37585400    0.68888200
 C                 -2.03136100   -4.33478300    1.54466100
 C                 -1.61835700   -3.03351900    1.27183300
 C                  0.45456600    3.80974900   -0.70090500
 C                  0.87865400    5.10908100   -0.43928400
 C                  1.66557400    5.37967900    0.68167400
 C                  2.02391600    4.34100500    1.54029800
 C                  1.61414900    3.03836900    1.26916400
 H                  1.99224800    6.39295900    0.88574500
 H                 -2.00238100   -6.38807900    0.89420900
 H                  3.56224300   -3.84392200    0.67337700
 H                  6.02624300   -3.59216600    0.51169500
 H                  8.00563900   -2.18029900   -0.04245700
 H                  8.94283400   -0.02586700   -0.80742300
 H                  7.44713100    1.87014900   -1.35727400
 H                  5.13075900    2.78877600   -1.60338600
 H                  2.73878000    2.55807100   -1.30381000
 H                  0.16010200   -3.60594400   -1.56048500
 H                 -0.59736000   -5.91457500   -1.09785200
 H                 -1.90566700   -2.22133100    1.92948100
 H                 -2.63531600   -4.53442500    2.42259200
 H                 -0.15939800    3.60162100   -1.56810100
 H                  0.59235100    5.91279500   -1.10833100
 H                  2.62549500    4.54363300    2.41917900
 H                  1.90154700    2.22803200    1.92905000
 H                 -3.56242500    3.83899200    0.68676600
 H                 -6.02618100    3.58705600    0.52195800
 H                 -8.00481700    2.17668400   -0.03942200
 H                 -8.94054800    0.02469900   -0.81295200
 H                 -7.44378400   -1.86888200   -1.36817100
 H                 -5.12705800   -2.78633700   -1.61476800
 H                 -2.73496300   -2.55574000   -1.31233600
 O                  0.59458900   -0.09829700    2.86158300
 O                 -0.59491800    0.09957100    2.86208000
