 72
 C                  7.87333400   -0.11431300   -0.63301900
 C                  7.33088700   -1.34373900   -0.23723300
 C                  5.95105400   -1.51267400   -0.11658600
 C                  5.09078900   -0.40777300   -0.38997000
 C                  5.64664400    0.83556100   -0.79701700
 C                  7.04723600    0.96037000   -0.91445800
 C                  3.67917000   -0.54318400   -0.25853000
 C                  2.81448400    0.54942200   -0.47131600
 C                  3.39803300    1.76725400   -0.94201100
 C                  4.74964100    1.90083500   -1.09633700
 C                  5.36113700   -2.77142700    0.27087100
 C                  4.01797900   -2.92444800    0.35516800
 C                  3.12005300   -1.82863700    0.07596000
 N                  1.82210100   -2.05646100    0.09703100
 C                  0.95209200   -1.02986900   -0.11467900
 C                  1.38979400    0.34110300   -0.26091600
 C                 -0.42720100   -1.36120500   -0.13917600
 C                 -1.38926600   -0.34107100   -0.26195200
 C                 -0.95167400    1.02959200   -0.11231800
 C                  0.42747700    1.36130100   -0.14039500
 C                 -2.81377000   -0.54920400   -0.47279400
 C                 -3.67860000    0.54284800   -0.25801500
 C                 -3.11973700    1.82753900    0.07990500
 N                 -1.82178900    2.05563300    0.10147000
 C                 -5.09011200    0.40747000   -0.39039900
 C                 -5.95066600    1.51156100   -0.11473500
 C                 -5.36109300    2.76939600    0.27622800
 C                 -4.01798800    2.92242200    0.36163200
 C                 -3.39673200   -1.76619900   -0.94627400
 C                 -4.74822500   -1.89961900   -1.10169300
 C                 -5.64551900   -0.83505000   -0.80057400
 C                 -7.04602800   -0.95977100   -0.91904600
 C                 -7.87243900    0.11413600   -0.63552300
 C                 -7.33041500    1.34269700   -0.23649200
 C                  0.80218700    2.78475200    0.09375000
 C                 -0.80310200   -2.78414500    0.09590600
 C                 -0.47272000   -3.79521800   -0.81389800
 C                 -0.86665300   -5.11011700   -0.58269900
 C                 -1.58060500   -5.43669100    0.57173000
 C                 -1.89321300   -4.43946200    1.49438500
 C                 -1.50809200   -3.12185400    1.25638400
 C                  0.47275700    3.79407100   -0.81828000
 C                  0.86482200    5.10974200   -0.58819200
 C                  1.57590300    5.43873600    0.56730900
 C                  1.88746100    4.44319000    1.49216100
 C                  1.50417000    3.12483800    1.25532700
 H                  1.88044000    6.46370700    0.74600700
 H                 -1.88655900   -6.46109300    0.75127400
 H                  3.56843300   -3.87270600    0.62421400
 H                  6.02280400   -3.60457900    0.48207100
 H                  7.98780500   -2.17964100   -0.02306300
 H                  8.94807900   -0.00815900   -0.72240000
 H                  7.46836500    1.90876600   -1.22912700
 H                  5.15680100    2.83731300   -1.46190400
 H                  2.76346100    2.59844100   -1.20114200
 H                  0.08334600   -3.54206000   -1.70829500
 H                 -0.61469200   -5.88164100   -1.30168600
 H                 -1.75606600   -2.34412700    1.96907900
 H                 -2.43962100   -4.68555400    2.39796200
 H                 -0.08113000    3.53897800   -1.71351000
 H                  0.61361200    5.87995100   -1.30884800
 H                  2.43159700    4.69121500    2.39658400
 H                  1.75124200    2.34841700    1.96975900
 H                 -3.56875900    3.87008800    0.63327800
 H                 -6.02298100    3.60192300    0.48920000
 H                 -7.98759500    2.17794800   -0.02060000
 H                 -8.94711900    0.00802000   -0.72572600
 H                 -7.46686500   -1.90748800   -1.23614100
 H                 -5.15510600   -2.83535000   -1.46947100
 H                 -2.76168400   -2.59668700   -1.20664300
 O                  0.15866500   -0.58450000    2.83616900
 O                 -0.15235200    0.58214100    2.83714200
