 72
 C                  7.86075800   -0.14191100   -0.71803400
 C                  7.32315300   -1.37556300   -0.33500500
 C                  5.94487500   -1.53943200   -0.17719700
 C                  5.08432100   -0.42411700   -0.39860400
 C                  5.63607500    0.82396200   -0.79465700
 C                  7.03183600    0.94386700   -0.95087400
 C                  3.67664300   -0.55447200   -0.22791700
 C                  2.81046000    0.54968400   -0.39398400
 C                  3.39005400    1.77351900   -0.85678900
 C                  4.73724600    1.90067600   -1.04521000
 C                  5.36010300   -2.80188200    0.19622700
 C                  4.01773600   -2.94825200    0.31884900
 C                  3.12336100   -1.83991400    0.09884100
 N                  1.82079100   -2.06135100    0.16924200
 C                  0.95943200   -1.02943200    0.01949900
 C                  1.39734700    0.33909200   -0.14754500
 C                 -0.42314300   -1.34711200    0.03952700
 C                 -1.38519600   -0.33946800   -0.16152900
 C                 -0.94991400    1.02443900    0.04554500
 C                  0.43114800    1.34849900    0.02257500
 C                 -2.79571600   -0.54782000   -0.41396000
 C                 -3.66453900    0.54991100   -0.22505300
 C                 -3.11570900    1.82686400    0.14200700
 N                 -1.81399300    2.05117700    0.21857000
 C                 -5.07050300    0.41985600   -0.40782700
 C                 -5.93560400    1.52597000   -0.16013100
 C                 -5.35650700    2.77834100    0.25472500
 C                 -4.01547700    2.92495100    0.39092300
 C                 -3.36701900   -1.76215500   -0.91028300
 C                 -4.71221300   -1.88763600   -1.11242200
 C                 -5.61548000   -0.81904700   -0.84104600
 C                 -7.00976000   -0.93807200   -1.01005500
 C                 -7.84333400    0.13880000   -0.75312800
 C                 -7.31227800    1.36275400   -0.33173900
 C                  0.80439300    2.77879300    0.20872400
 C                 -0.81279000   -2.77159400    0.23794000
 C                 -0.46594800   -3.75961500   -0.69169000
 C                 -0.90680800   -5.06882700   -0.52301300
 C                 -1.67871900   -5.41199300    0.58845500
 C                 -2.00342900   -4.43788800    1.53129800
 C                 -1.57598000   -3.12397400    1.35557700
 C                  0.46819000    3.74383600   -0.74784100
 C                  0.88326700    5.06289400   -0.59016900
 C                  1.61705800    5.43744200    0.53684800
 C                  1.92879900    4.48545900    1.50652300
 C                  1.52726100    3.16178900    1.34257900
 H                  1.93749100    6.46572100    0.65982200
 H                 -2.01890700   -6.43286000    0.71994400
 H                  3.56966500   -3.89921600    0.57967000
 H                  6.02126100   -3.64458700    0.36657500
 H                  7.98019300   -2.22023200   -0.15966200
 H                  8.93278700   -0.03892800   -0.83706100
 H                  7.44913400    1.89665700   -1.25701200
 H                  5.14005200    2.84232000   -1.40196500
 H                  2.75697700    2.61466800   -1.08254500
 H                  0.13340900   -3.49376900   -1.55325200
 H                 -0.64526000   -5.82269200   -1.25690500
 H                 -1.82241700   -2.35910300    2.08066600
 H                 -2.59347100   -4.69895000    2.40253800
 H                 -0.10291600    3.45275800   -1.62079200
 H                  0.63067600    5.79987900   -1.34403900
 H                  2.48820300    4.77174000    2.38997600
 H                  1.76249200    2.41334400    2.08841300
 H                 -3.57227800    3.86933600    0.68225300
 H                 -6.02125700    3.61384500    0.44547300
 H                 -7.97324600    2.19998500   -0.13654800
 H                 -8.91421900    0.03614400   -0.88239800
 H                 -7.42246700   -1.88317500   -1.34493900
 H                 -5.11060800   -2.82071000   -1.49564900
 H                 -2.72757100   -2.59508100   -1.15046200
 O                  0.06478900   -0.63725000    2.30245200
 O                 -0.05354000    0.61434800    2.31348100

