 72
 C                  7.33448800   -0.52422000   -2.15160100
 C                  6.55903700   -1.65602900   -2.39475100
 C                  5.22396900   -1.76448300   -1.86348400
 C                  4.70128400   -0.68174600   -1.08978000
 C                  5.51104300    0.46976500   -0.83235200
 C                  6.84522500    0.52329600   -1.39024300
 C                  3.38480600   -0.75006000   -0.56654000
 C                  2.83505700    0.34695400    0.17508700
 C                  3.67600300    1.42782000    0.46261800
 C                  4.99054300    1.48768100   -0.03913400
 C                  4.42978800   -2.89664400   -2.07112800
 C                  3.14659300   -2.98445500   -1.51083500
 C                  2.61782200   -1.93580300   -0.76349100
 N                  1.36319300   -2.10598300   -0.18253300
 C                  0.84844600   -1.08311700    0.44146700
 C                  1.45251200    0.19769800    0.58015100
 C                 -0.49336700   -1.19521100    1.19567000
 C                 -1.45250900   -0.19763100    0.58006000
 C                 -0.84842200    1.08320900    0.44127600
 C                  0.49332500    1.19532700    1.19563400
 C                 -2.83511600   -0.34681700    0.17525500
 C                 -3.38484200    0.75006200   -0.56656900
 C                 -2.61780700    1.93572400   -0.76380200
 N                 -1.36316500    2.10599200   -0.18281000
 C                 -4.70134500    0.68169800   -1.08971500
 C                 -5.22398400    1.76426700   -1.86368900
 C                 -4.42972600    2.89632900   -2.07164600
 C                 -3.14652100    2.98421900   -1.51138300
 C                 -3.67612400   -1.42753500    0.46318200
 C                 -4.99070600   -1.48742700   -0.03845300
 C                 -5.51116800   -0.46969000   -0.83193400
 C                 -6.84537700   -0.52327600   -1.38975700
 C                 -7.33458700    0.52405500   -2.15138200
 C                 -6.55905800    1.65575800   -2.39487400
 C                  0.97673600    2.62010800    1.36662100
 C                 -0.97674100   -2.62001800    1.36653500
 C                 -1.20238300   -3.40885300    0.23112500
 C                 -1.70164700   -4.69982200    0.36082000
 C                 -1.97691900   -5.22419100    1.62480800
 C                 -1.74686900   -4.44634000    2.75606500
 C                 -1.24848000   -3.14857600    2.62957400
 C                  1.20200800    3.40922300    0.23133400
 C                  1.70142900    4.70011900    0.36118200
 C                  1.97723300    5.22413900    1.62519400
 C                  1.74755700    4.44600800    2.75634000
 C                  1.24901500    3.14832200    2.62970200
 H                  2.36919600    6.22990200    1.72448800
 H                 -2.36875800   -6.23001400    1.72400200
 H                  2.54656500   -3.87717200   -1.63933800
 H                  4.81906300   -3.72183800   -2.65601700
 H                  6.95181400   -2.47587700   -2.98429900
 H                  8.33627400   -0.46647800   -2.56167500
 H                  7.45270600    1.39962500   -1.19769500
 H                  5.60281000    2.35137900    0.19303900
 H                  3.33005800    2.23902000    1.08077900
 H                 -1.00495300   -3.00451500   -0.75131900
 H                 -1.88177800   -5.29535800   -0.52672900
 H                 -1.08840800   -2.54679600    3.51323000
 H                 -1.95873500   -4.84260400    3.74247500
 H                  1.00418000    3.00515900   -0.75113700
 H                  1.88127400    5.29587000   -0.52628200
 H                  1.95984100    4.84198700    3.74277300
 H                  1.08926600    2.54631100    3.51325600
 H                 -2.54646400    3.87688800   -1.64009500
 H                 -4.81895900    3.72139100   -2.65674700
 H                 -6.95181500    2.47546300   -2.98463400
 H                 -8.33638900    0.46628200   -2.56141100
 H                 -7.45291700   -1.39950200   -1.19692600
 H                 -5.60302900   -2.35101100    0.19399300
 H                 -3.33016300   -2.23857300    1.08155700
 O                 -0.15195200   -0.71292800    2.55397200
 O                  0.15167700    0.71310200    2.55392500

