 72
 C                  7.37836900   -0.39593000   -2.04326200
 C                  6.67529300   -1.58826300   -2.18667300
 C                  5.36813500   -1.71659400   -1.69159700
 C                  4.76109400   -0.60004400   -1.04525200
 C                  5.49192900    0.61121800   -0.89658800
 C                  6.79688500    0.69446700   -1.40079900
 C                  3.43186700   -0.69580700   -0.54187700
 C                  2.79121100    0.42432200    0.08387100
 C                  3.58595700    1.61424600    0.26117200
 C                  4.85955900    1.69592400   -0.20720100
 C                  4.62383000   -2.93736400   -1.80736200
 C                  3.36598700   -3.04261900   -1.30290900
 C                  2.73621600   -1.93006400   -0.65278400
 N                  1.50359500   -2.10412100   -0.14018700
 C                  0.90409500   -1.05561100    0.39397300
 C                  1.45188500    0.23626900    0.48906100
 C                 -0.45199300   -1.20700700    1.11200100
 C                 -1.45191000   -0.23620000    0.48914700
 C                 -0.90409700    1.05566600    0.39392500
 C                  0.45200200    1.20708200    1.11193200
 C                 -2.79126400   -0.42425500    0.08404400
 C                 -3.43189700    0.69580000   -0.54186200
 C                 -2.73619900    1.93001000   -0.65297300
 N                 -1.50358400    2.10411000   -0.14037800
 C                 -4.76113100    0.60000400   -1.04521100
 C                 -5.36812400    1.71646400   -1.69175700
 C                 -4.62376700    2.93718100   -1.80774400
 C                 -3.36592400    3.04247800   -1.30329500
 C                 -3.58608700   -1.61409200    0.26162500
 C                 -4.85970600   -1.69578800   -0.20669600
 C                 -5.49202400   -0.61119300   -0.89631100
 C                 -6.79698700   -0.69447600   -1.40049400
 C                 -7.37842300    0.39582800   -2.04316200
 C                 -6.67529100    1.58809900   -2.18680200
 C                  0.88917900    2.64722000    1.29522600
 C                 -0.88914300   -2.64716000    1.29517500
 C                 -0.99839300   -3.48581500    0.17845100
 C                 -1.46650100   -4.78714500    0.31982400
 C                 -1.82463200   -5.27390900    1.57816700
 C                 -1.71008500   -4.44690300    2.69188700
 C                 -1.24474200   -3.13833900    2.55279600
 C                  0.99828900    3.48605700    0.17861300
 C                  1.46641500    4.78736200    0.32013900
 C                  1.82472400    5.27392600    1.57851200
 C                  1.71034700    4.44673700    2.69211000
 C                  1.24499200    3.13819000    2.55286700
 H                  2.19179900    6.28815400    1.68653400
 H                 -2.19170700   -6.28814900    1.68607500
 H                  2.80084400   -3.96420600   -1.37142300
 H                  5.09068000   -3.78326500   -2.29998400
 H                  7.13654200   -2.43499200   -2.68284600
 H                  8.38753200   -0.31704200   -2.43011300
 H                  7.35262300    1.61814700   -1.28316900
 H                  5.42763300    2.60665900   -0.05022000
 H                  3.17658000    2.45563500    0.79062700
 H                 -0.73909500   -3.11268100   -0.80160800
 H                 -1.55763600   -5.42058000   -0.55499900
 H                 -1.17825900   -2.49809400    3.42111500
 H                 -1.98813500   -4.81276400    3.67360300
 H                  0.73887300    3.11307800   -0.80146700
 H                  1.55743300    5.42094300   -0.55459100
 H                  1.98855200    4.81243100    3.67384300
 H                  1.17864200    2.49780500    3.42109300
 H                 -2.80074200    3.96402800   -1.37196800
 H                 -5.09057300    3.78300700   -2.30053600
 H                 -7.13650200    2.43475500   -2.68313600
 H                 -8.38759000    0.31691400   -2.42999500
 H                 -7.35277100   -1.61810500   -1.28267900
 H                 -5.42784200   -2.60644400   -0.04947900
 H                 -3.17677000   -2.45538100    0.79128400
 O                 -0.15540600   -0.71079900    2.47480100
 O                  0.15542700    0.71084800    2.47476900

