72
C         7.860758025674     -0.141910776654     -0.718034387291
 C         7.323153244328     -1.375563086211     -0.335004726754
 C         5.944875055683     -1.539431562163     -0.177196618413
 C         5.084320698700     -0.424116979483     -0.398603625260
 C         5.636074540935      0.823962075646     -0.794656966679
 C         7.031835950862      0.943866895215     -0.950873667164
 C         3.676643413923     -0.554472156774     -0.227917453435
 C         2.810460257156      0.549684383624     -0.393984069078
 C         3.390053842577      1.773519197535     -0.856789425173
 C         4.737245547717      1.900675581138     -1.045210453687
 C         5.360103227832     -2.801881574886      0.196227078718
 C         4.017736412332     -2.948252102554      0.318848833261
 C         3.123361000980     -1.839914501262      0.098840762464
 N         1.820790931168     -2.061351351057      0.169242331914
 C         0.959431822650     -1.029431818035      0.019498785999
 C         1.397347184692      0.339091905790     -0.147545022729
 C        -0.423142721374     -1.347112228014      0.039526694545
 C        -1.385195736024     -0.339468396325     -0.161529181944
 C        -0.949914406466      1.024439502018      0.045544684746
 C         0.431147948059      1.348498667015      0.022574789249
 C        -2.795715781945     -0.547819997058     -0.413959770059
 C        -3.664539390116      0.549911051391     -0.225052957395
 C        -3.115708849797      1.826864144557      0.142006705899
 N        -1.813993051924      2.051177120120      0.218570315365
 C        -5.070503114416      0.419855782108     -0.407826529454
 C        -5.935604135537      1.525969801928     -0.160131064532
 C        -5.356506622000      2.778340539272      0.254724984612
 C        -4.015476825641      2.924951308101      0.390923443031
 C        -3.367019308930     -1.762154825883     -0.910283483749
 C        -4.712212915006     -1.887635770935     -1.112422351934
 C        -5.615480233911     -0.819046633203     -0.841046096225
 C        -7.009760053483     -0.938072246002     -1.010055237734
 C        -7.843333754732      0.138799616828     -0.753128319231
 C        -7.312278176384      1.362754441781     -0.331738848212
 C         0.804393091803      2.778792567737      0.208723692218
 C        -0.812790229247     -2.771594212471      0.237940432825
 C        -0.465947689220     -3.759615103821     -0.691689633227
 C        -0.906807948371     -5.068826606927     -0.523013403452
 C        -1.678719497372     -5.411992757603      0.588455472751
 C        -2.003428767156     -4.437887988626      1.531298092556
 C        -1.575980376884     -3.123973830525      1.355577285354
 C         0.468189805125      3.743835864908     -0.747841500220
 C         0.883267076801      5.062894191719     -0.590169445986
 C         1.617058509314      5.437441789278      0.536848311939
 C         1.928798788681      4.485459167767      1.506523317317
 C         1.527260761484      3.161789511364      1.342578915018
 H         1.937490725458      6.465721218101      0.659822279954
 H        -2.018906507353     -6.432860054151      0.719943965591
 H         3.569665499308     -3.899215946806      0.579670162655
 H         6.021260621890     -3.644586641668      0.366574887226
 H         7.980192898837     -2.220232178335     -0.159661636720
 H         8.932787127492     -0.038928389063     -0.837060836191
 H         7.449133616248      1.896657205194     -1.257011647943
 H         5.140051965062      2.842319704521     -1.401965335379
 H         2.756977073172      2.614668361606     -1.082544752601
 H         0.133408722948     -3.493769363812     -1.553251765875
 H        -0.645259741160     -5.822692218182     -1.256905140446
 H        -1.822417135072     -2.359102677393      2.080666112877
 H        -2.593471332322     -4.698950347656      2.402537558740
 H        -0.102915962515      3.452758431596     -1.620792463090
 H         0.630675543142      5.799879229866     -1.344039385911
 H         2.488203374488      4.771740503971      2.389975632601
 H         1.762492255732      2.413343923607      2.088412584606
 H        -3.572278391163      3.869335532250      0.682253324035
 H        -6.021257235156      3.613845160537      0.445472758225
 H        -7.973246389589      2.199984990395     -0.136548116495
 H        -8.914219304597      0.036144142959     -0.882398464160
 H        -7.422466736141     -1.883174960509     -1.344938674955
 H        -5.110607592528     -2.820710319188     -1.495649059014
 H        -2.727570759062     -2.595080565512     -1.150461800649
 O         0.064788770398     -0.637249739180      2.302452336050
 O        -0.053539591100      0.614348214225      2.313480547879
