72
 C         7.830558499279     -0.123631094092     -0.975931929403
 C         7.306740816999     -1.373771830282     -0.633774965141
 C         5.936152934868     -1.542261395818     -0.416126870660
 C         5.072063734453     -0.414534635138     -0.536025609685
 C         5.610483910293      0.851787677785     -0.890201317254
 C         6.996263027974      0.976297406031     -1.107795761939
 C         3.673572514152     -0.550565891155     -0.304766109433
 C         2.803344114012      0.563635433786     -0.373316878541
 C         3.369063099932      1.811573162143     -0.791275356975
 C         4.705773612447      1.944453014557     -1.034808156643
 C         5.364517536957     -2.819438635112     -0.077776076028
 C         4.029152132706     -2.966478914746      0.109824155127
 C         3.133353430830     -1.845405905653     -0.008056457275
 N         1.832031301181     -2.062205182886      0.130600603153
 C         0.978293928588     -1.023324184261      0.059928643308
 C         1.403781542911      0.337931576017     -0.090529700780
 C        -0.435228458645     -1.339768345285      0.183389544722
 C        -1.404164843313     -0.337839094133     -0.090566262087
 C        -0.978684839754      1.023576060582      0.058524008654
 C         0.434794049380      1.340138140921      0.182031138221
 C        -2.803664752817     -0.563812426876     -0.373453271842
 C        -3.673876414626      0.550506266265     -0.306439634813
 C        -3.133692152813      1.845672399570     -0.011094354197
 N        -1.832412968713      2.062579567228      0.127709626952
 C        -5.072312985111      0.414272476408     -0.537928951578
 C        -5.936385132615      1.542180961046     -0.419603185055
 C        -5.364790987726      2.819733124441     -0.082596707123
 C        -4.029475280691      2.966930733073      0.105211016830
 C        -3.369353939016     -1.812212586154     -0.790091091570
 C        -4.706002259717     -1.945311994622     -1.033832058048
 C        -5.610701795975     -0.852436219036     -0.890766748027
 C        -6.996424253261     -0.977137347636     -1.108601783577
 C        -7.830704450512      0.122985869574     -0.978269787143
 C        -7.306919930329      1.373502136317     -0.637440253069
 C         0.819549598191      2.756813490644      0.425777519474
 C        -0.819907843511     -2.756286625127      0.428187067686
 C        -0.484594320509     -3.770547813364     -0.478559934597
 C        -0.934133455553     -5.071695987971     -0.274615364363
 C        -1.703753011790     -5.381551443956      0.847972407511
 C        -2.019172757725     -4.381451999227      1.766269631696
 C        -1.583003136521     -3.075591307344      1.556318744520
 C         0.484202352091      3.770511017120     -0.481583975650
 C         0.933648533400      5.071812985536     -0.278393337049
 C         1.703189148663      5.382394340021      0.844041648998
 C         2.018707781565      4.382853411861      1.762919981399
 C         1.582656388754      3.076839557366      1.553727885607
 H         2.049321729865      6.397452763591      1.002168946845
 H        -2.049990122817     -6.396484068948      1.006676446412
 H         3.589813051408     -3.927312831288      0.348419928113
 H         6.028198343856     -3.672195489588      0.014949555224
 H         7.966920283865     -2.228455804164     -0.536214858662
 H         8.895860255543     -0.016530578639     -1.142292100618
 H         7.403386342886      1.943391601564     -1.380973294300
 H         5.097318419439      2.903641328612     -1.355617962093
 H         2.731469058133      2.666591963382     -0.938098475094
 H         0.109716680689     -3.531796565726     -1.350573462944
 H        -0.681718564561     -5.845172103516     -0.991029247262
 H        -1.823464551839     -2.290863010330      2.261282317892
 H        -2.608863674072     -4.615734163943      2.645236704704
 H        -0.110085673065      3.531212599239     -1.353458220968
 H         0.681202686850      5.844846581661     -0.995273721329
 H         2.608394852479      4.617695847940      2.641739763204
 H         1.823369052932      2.292484871960      2.259031928514
 H        -3.590156246686      3.928021109148      0.342809126455
 H        -6.028461898003      3.672626524064      0.008936911384
 H        -7.967082713888      2.228334706598     -0.541074948361
 H        -8.895964815876      0.015741346718     -1.144803223889
 H        -7.403516597874     -1.944534383911     -1.380751388110
 H        -5.097501895042     -2.904861246881     -1.353617073737
 H        -2.731784768726     -2.667445291867     -0.935736476051
 O         0.053429826776     -0.633244427035      2.260137346834
 O        -0.054526080653      0.635660772943      2.259481743522
