 80
 C                 -6.64698749   -3.16905424   -2.20986517
 C                 -5.54539540   -4.01085031   -2.32976418
 C                 -4.29269333   -3.63337128   -1.82135014
 C                 -4.15903232   -2.36475318   -1.18386809
 C                 -5.29354142   -1.51577412   -1.05968908
 C                 -6.52698152   -1.93389615   -1.57742112
 C                 -2.89846022   -1.94895615   -0.66619505
 C                 -2.73496321   -0.66655005   -0.04458000
 C                 -3.92093030    0.14067601    0.10369501
 C                 -5.12439139   -0.26568202   -0.38092703
 C                 -3.14228724   -4.48511335   -1.91522414
 C                 -1.94364115   -4.10345331   -1.40058311
 C                 -1.78761514   -2.83027022   -0.75868306
 N                 -0.58487604   -2.52159719   -0.23952302
 C                 -0.43076903   -1.32265410    0.29246702
 C                 -1.42939611   -0.33550603    0.38046803
 C                  0.88067807   -0.94442907    1.00935308
 C                  1.42925311    0.33519103    0.38049203
 C                  0.43064903    1.32235910    0.29275502
 C                 -0.88091407    0.94399007    1.00955907
 C                  2.73472521    0.66620105   -0.04486400
 C                  2.89814322    1.94874715   -0.66624605
 C                  1.78733714    2.83015821   -0.75829106
 N                  0.58464904    2.52140319   -0.23901302
 C                  4.15859932    2.36458718   -1.18417409
 C                  4.29217733    3.63335428   -1.82138214
 C                  3.14181424    4.48520634   -1.91475415
 C                  1.94327215    4.10348331   -1.39991811
 C                  3.92068130   -0.14114801    0.10279601
 C                  5.12402839    0.26524602   -0.38209303
 C                  5.29309443    1.51550411   -1.06055908
 C                  6.52641651    1.93366215   -1.57853812
 C                  6.64633750    3.16897624   -2.21069117
 C                  5.54476541    4.01087630   -2.33004818
 C                 -1.83953814    2.09980316    1.20866809
 C                  1.83947214   -2.10009216    1.20865409
 C                  2.40682318   -2.36110218    2.46144419
 C                  3.34624225   -3.37079426    2.62102520
 C                  3.74629328   -4.14598332    1.52674112
 C                  3.18665124   -3.89312930    0.26878902
 C                  2.24078617   -2.88235322    0.12310401
 C                 -2.24122917    2.88144022    0.12278001
 C                 -3.18655324    3.89269830    0.26833102
 C                 -3.74523228    4.14674431    1.52650212
 C                 -3.34480026    3.37221726    2.62107820
 C                 -2.40589019    2.36199018    2.46161019
 O                  4.67408536   -5.10696839    1.78296813
 O                 -4.67236736    5.10840639    1.78264013
 C                  5.13218139   -5.91897845    0.69910305
 H                  4.31132333   -6.49259251    0.25729602
 H                  5.61420342   -5.31328841   -0.07486101
 H                  5.86079546   -6.60293851    1.12963009
 C                 -5.13099439    5.91968543    0.69846105
 H                 -4.31027333    6.49262648    0.25552702
 H                 -5.61385342    5.31353840   -0.07462601
 H                 -5.85901642    6.60428251    1.12898209
 H                 -3.47915426    4.46618234   -0.60004905
 H                 -1.83363814    2.68964321   -0.85857506
 H                 -2.12686916    1.76297413    3.31702526
 H                 -3.78581629    3.57438327    3.58964028
 H                 -1.07180508   -4.74412536   -1.45432411
 H                 -3.24997725   -5.44892041   -2.40058518
 H                 -5.64777241   -4.97350338   -2.81845222
 H                 -7.60625656   -3.47901426   -2.60743620
 H                 -7.39052857   -1.28558010   -1.47813411
 H                 -5.99434445    0.36820603   -0.24604102
 H                 -3.86490029    1.08037708    0.62262004
 H                  3.86484030   -1.08100408    0.62144505
 H                  5.99394244   -0.36878703   -0.24763602
 H                  7.38993758    1.28524810   -1.47966911
 H                  7.60551259    3.47897726   -2.60845520
 H                  5.64706045    4.97365438   -2.81850721
 H                  3.24944925    5.44912641   -2.39990319
 H                  1.07144108    4.74419136   -1.45329711
 H                  3.47890026   -4.46712534   -0.59937004
 H                  1.83252914   -2.69150521   -0.85813806
 H                  2.12810116   -1.76156414    3.31658426
 H                  3.78798729   -3.57207928    3.58944027
 O                 -0.41516303    0.59728904    2.37167318
 O                  0.41478003   -0.59790804    2.37154718

