 80
 C                  7.49112900    2.29227600   -0.55618100
 C                  6.67992200    3.30726400   -0.06954000
 C                  5.29426800    3.10013200    0.11144800
 C                  4.74459800    1.81949300   -0.20085000
 C                  5.58600800    0.78645600   -0.70697400
 C                  6.95486400    1.04279900   -0.87976300
 C                  3.35738500    1.57444300   -0.01612300
 C                  2.79733600    0.28186000   -0.25148700
 C                  3.65254800   -0.70735500   -0.82205800
 C                  4.98049300   -0.46508000   -1.04472800
 C                  4.42148400    4.12106500    0.58635800
 C                  3.07292200    3.89479400    0.71569900
 C                  2.50875000    2.63085800    0.40311800
 N                  1.15616700    2.48806500    0.45936700
 C                  0.60440600    1.30009500    0.22689400
 C                  1.40125300    0.09383900    0.04765800
 C                 -0.81218100    1.23473200    0.16180700
 C                 -1.45376800   -0.01321400    0.04048500
 C                 -0.66464800   -1.20869300    0.24395600
 C                  0.75333200   -1.14452100    0.22201000
 C                 -2.85186000   -0.20769300   -0.26124000
 C                 -3.41309400   -1.49609600   -0.00879100
 C                 -2.56359800   -2.54683700    0.42195700
 N                 -1.21438800   -2.39695600    0.48509900
 C                 -4.79994600   -1.74627400   -0.19091500
 C                 -5.34713100   -3.02459800    0.13480100
 C                 -4.47209600   -4.04016800    0.61864900
 C                 -3.12465100   -3.81024600    0.74544100
 C                 -3.71058200    0.77141800   -0.84568000
 C                 -5.03865400    0.52563700   -1.06257800
 C                 -5.64338800   -0.72122900   -0.70821600
 C                 -7.01218200   -0.98117500   -0.87684100
 C                 -7.54601200   -2.22741200   -0.53890200
 C                 -6.73201500   -3.23592000   -0.04241500
 C                  1.52657000   -2.38517300    0.45723200
 C                 -1.58155500    2.48569400    0.35456900
 C                 -2.52383600    2.57305000    1.39389100
 C                 -3.27020700    3.72160100    1.59011900
 C                 -3.10659000    4.82356200    0.73800500
 C                 -2.16932000    4.75751700   -0.30025800
 C                 -1.41097100    3.60219700   -0.47117900
 C                  1.36852800   -3.52860600   -0.33423300
 C                  2.14113900   -4.66857600   -0.12962500
 C                  3.08075500   -4.69197500    0.90845800
 C                  3.23271500   -3.56266500    1.72620400
 C                  2.47233200   -2.42969100    1.49627000
 O                 -3.89445600    5.89864200    1.00419600
 O                  3.88232000   -5.74878200    1.20503700
 C                 -3.77640300    7.05710400    0.17450900
 H                 -2.76787100    7.47956300    0.22309200
 H                 -4.02849300    6.82782000   -0.86567400
 H                 -4.49006600    7.77719800    0.56963500
 C                  3.77993800   -6.93158300    0.40829600
 H                  2.77766200   -7.36693000    0.47027400
 H                  4.02748400   -6.72782300   -0.63825000
 H                  4.50433900   -7.63004300    0.82226400
 H                  2.00267200   -5.52355700   -0.77679900
 H                  0.64709600   -3.51809400   -1.14002100
 H                  2.60934100   -1.55874200    2.12640000
 H                  3.95427200   -3.60041500    2.53336700
 H                  2.40065300    4.67805200    1.04556800
 H                  4.83759500    5.09283800    0.82821700
 H                  7.10332700    4.27540900    0.17414300
 H                  8.55165800    2.47043600   -0.69171700
 H                  7.59575400    0.25983600   -1.26974200
 H                  5.59876900   -1.23556200   -1.49232600
 H                  3.24228700   -1.66511600   -1.10247200
 H                 -3.30449500    1.72616700   -1.14109600
 H                 -5.65737700    1.29007300   -1.51984900
 H                 -7.65439400   -0.20353900   -1.27519600
 H                 -8.60635600   -2.40901000   -0.67110500
 H                 -7.15348100   -4.20222200    0.21171900
 H                 -4.88670800   -5.01022000    0.86979700
 H                 -2.45047500   -4.58825900    1.08362800
 H                 -2.02077900    5.59130900   -0.97225900
 H                 -0.68664600    3.56178100   -1.27432800
 H                 -2.66902500    1.72399700    2.05146400
 H                 -3.98916100    3.79285300    2.39735800
 O                  0.78937900   -1.47179900   -2.96409500
 O                  0.17926200   -0.43858500   -2.85050100
