 80
 C                  7.58479900    2.10167300   -0.34008800
 C                  6.76310500    3.13839800    0.11638100
 C                  5.38599100    2.95256700    0.25683700
 C                  4.82410300    1.68002400   -0.05769500
 C                  5.66266000    0.63299200   -0.52770100
 C                  7.04582800    0.86675000   -0.66436900
 C                  3.42680500    1.45378700    0.09254300
 C                  2.85991200    0.18367100   -0.14915600
 C                  3.71520800   -0.82689800   -0.69241000
 C                  5.05147400   -0.60832100   -0.87250500
 C                  4.50883200    4.00627400    0.70292600
 C                  3.17009200    3.81630400    0.79963100
 C                  2.57200800    2.54452200    0.47674700
 N                  1.25457100    2.43987900    0.49949000
 C                  0.67471700    1.23591100    0.25801100
 C                  1.44347100    0.02425700    0.10200800
 C                 -0.74297900    1.21848800    0.18688700
 C                 -1.42275600   -0.01033400    0.07907900
 C                 -0.66169200   -1.21992800    0.30478100
 C                  0.75314200   -1.20024300    0.19022300
 C                 -2.83540800   -0.17698400   -0.18287200
 C                 -3.40871600   -1.43518600    0.10045900
 C                 -2.56478900   -2.50960800    0.55036300
 N                 -1.24571300   -2.41044500    0.58632900
 C                 -4.80348000   -1.66373700   -0.06774500
 C                 -5.37577600   -2.91951400    0.29128800
 C                 -4.51154900   -3.95321000    0.80388300
 C                 -3.17411300   -3.76238700    0.92043500
 C                 -3.67541200    0.81423000   -0.78124200
 C                 -5.00810000    0.59081500   -0.98075400
 C                 -5.62866600   -0.63539800   -0.59912600
 C                 -7.00924700   -0.87239000   -0.75488500
 C                 -7.55874500   -2.09116800   -0.38918200
 C                 -6.75037000   -3.10845000    0.13011100
 C                  1.45992500   -2.50041500    0.29696500
 C                 -1.46637400    2.50657500    0.29796900
 C                 -2.37915700    2.71456000    1.34261600
 C                 -3.07625000    3.90656700    1.45113500
 C                 -2.88924600    4.92217300    0.50283300
 C                 -1.98012300    4.72840100   -0.54494600
 C                 -1.27112200    3.53343700   -0.62844500
 C                  1.27559900   -3.49710800   -0.66256900
 C                  1.95995700   -4.70776300   -0.58908000
 C                  2.83181600   -4.94550400    0.48053100
 C                  3.00495500   -3.95973100    1.46234900
 C                  2.33134000   -2.75283700    1.36565800
 O                 -3.62898300    6.04742100    0.68653500
 O                  3.54733800   -6.08857300    0.65638500
 C                 -3.48125600    7.12349700   -0.24375600
 H                 -2.45650100    7.50796000   -0.24699500
 H                 -3.76057300    6.81476000   -1.25603800
 H                 -4.15945100    7.90316000    0.09697300
 C                  3.41301800   -7.13447800   -0.30914300
 H                  2.38312600   -7.50217400   -0.35625400
 H                  3.72911300   -6.80132100   -1.30278900
 H                  4.06788700   -7.93480300    0.02945300
 H                  1.80487800   -5.44996400   -1.35970700
 H                  0.60303500   -3.31055800   -1.49065300
 H                  2.48487200   -1.99205900    2.12227400
 H                  3.67606300   -4.16284100    2.28810800
 H                  2.50256700    4.61155400    1.10871700
 H                  4.94511300    4.96909700    0.94592600
 H                  7.19541500    4.10209600    0.36206200
 H                  8.65013400    2.27013200   -0.44447300
 H                  7.68326900    0.06839100   -1.02762100
 H                  5.66955100   -1.39173000   -1.29735200
 H                  3.29739700   -1.77380000   -0.99054700
 H                 -3.24688700    1.74896500   -1.10396100
 H                 -5.61614500    1.35766500   -1.44812100
 H                 -7.63675200   -0.08919100   -1.16534300
 H                 -8.62213700   -2.26161500   -0.50888400
 H                 -7.19090700   -4.05911100    0.40962500
 H                 -4.95582300   -4.90293000    1.08145300
 H                 -2.51635000   -4.54485200    1.27904900
 H                 -1.81581700    5.49328600   -1.29098800
 H                 -0.57022800    3.38432300   -1.43996500
 H                 -2.54345700    1.93096100    2.07311500
 H                 -3.77624600    4.07514200    2.26045500
 O                  0.35614900   -0.60638900   -2.27762900
 O                 -0.29297100    0.46100600   -2.32505700
