80
C         7.584798936565     -2.101673363337      0.340088291444
 C         6.763105157866     -3.138398465738     -0.116380988833
 C         5.385990629908     -2.952566669567     -0.256837366373
 C         4.824102943541     -1.680023945655      0.057694634467
 C         5.662660033587     -0.632992445017      0.527701176396
 C         7.045828507591     -0.866750487654      0.664368981134
 C         3.426804638948     -1.453786902921     -0.092542766238
 C         2.859912412569     -0.183670640675      0.149156296955
 C         3.715207615927      0.826897860853      0.692410372588
 C         5.051473552654      0.608321409678      0.872504903524
 C         4.508831909154     -4.006274338692     -0.702926044538
 C         3.170091566247     -3.816303667633     -0.799630872621
 C         2.572007534223     -2.544521535419     -0.476746518074
 N         1.254571008561     -2.439879292594     -0.499490500094
 C         0.674717401334     -1.235911442214     -0.258011315323
 C         1.443470894825     -0.024257379312     -0.102007617133
 C        -0.742979462340     -1.218488504799     -0.186886990876
 C        -1.422756162943      0.010333554130     -0.079078807800
 C        -0.661692154088      1.219928395989     -0.304780649171
 C         0.753141675663      1.200242548651     -0.190223227232
 C        -2.835408052176      0.176983972784      0.182872002724
 C        -3.408716023060      1.435185821239     -0.100459450463
 C        -2.564788911470      2.509607804195     -0.550362804684
 N        -1.245713423442      2.410444704546     -0.586328878877
 C        -4.803480288494      1.663736770705      0.067744538923
 C        -5.375775975123      2.919513917007     -0.291287539948
 C        -4.511548958959      3.953209823841     -0.803883319521
 C        -3.174112942626      3.762387447354     -0.920435256405
 C        -3.675412198473     -0.814230395610      0.781241906332
 C        -5.008100114072     -0.590815312064      0.980754277516
 C        -5.628665901228      0.635398253954      0.599126034870
 C        -7.009247069095      0.872390500703      0.754884795980
 C        -7.558745267009      2.091168311974      0.389182201823
 C        -6.750369555766      3.108449565067     -0.130110819660
 C         1.459924839974      2.500415017064     -0.296965002867
 C        -1.466374303651     -2.506575179560     -0.297969020844
 C        -2.379156683900     -2.714560037731     -1.342616465433
 C        -3.076249623917     -3.906567509458     -1.451134761992
 C        -2.889245731974     -4.922172667820     -0.502832957987
 C        -1.980123183650     -4.728401001524      0.544946178504
 C        -1.271122057728     -3.533436683338      0.628445352246
 C         1.275599288524      3.497107815833      0.662569037769
 C         1.959956689942      4.707763212009      0.589080203490
 C         2.831816161314      4.945504519683     -0.480531301439
 C         3.004955017652      3.959731197409     -1.462348635645
 C         2.331340209954      2.752837060554     -1.365658439312
 O        -3.628982634496     -6.047420603147     -0.686534875681
 O         3.547337740035      6.088572862720     -0.656384644249
 C        -3.481255640425     -7.123497116863      0.243755548496
 H        -2.456500775248     -7.507960447584      0.246995111055
 H        -3.760572893406     -6.814760209215      1.256038094169
 H        -4.159450963726     -7.903160254737     -0.096973482886
 C         3.413018329037      7.134478496509      0.309142777573
 H         2.383126497252      7.502173524358      0.356254240362
 H         3.729113154755      6.801320854342      1.302789408474
 H         4.067886944077      7.934802882323     -0.029452642622
 H         1.804878270805      5.449963709620      1.359707148353
 H         0.603035066927      3.310558032022      1.490652869420
 H         2.484871886438      1.992059093148     -2.122274248033
 H         3.676062657809      4.162840793562     -2.288108294526
 H         2.502566794481     -4.611554164763     -1.108716693263
 H         4.945113425974     -4.969097107742     -0.945925828491
 H         7.195414892795     -4.102096515062     -0.362061617345
 H         8.650133999583     -2.270132075878      0.444472964141
 H         7.683268602397     -0.068391186067      1.027620888951
 H         5.669551032145      1.391729577007      1.297352154966
 H         3.297396839150      1.773799746125      0.990546691220
 H        -3.246886572737     -1.748964798145      1.103960914167
 H        -5.616145145076     -1.357665413336      1.448120849062
 H        -7.636752390943      0.089191133471      1.165342787705
 H        -8.622137085473      2.261614846958      0.508883862851
 H        -7.190907043806      4.059111095670     -0.409625386948
 H        -4.955823305959      4.902929710057     -1.081452874802
 H        -2.516349902870      4.544852488599     -1.279048640213
 H        -1.815816533091     -5.493286124935      1.290987862361
 H        -0.570228058972     -3.384322541168      1.439964593084
 H        -2.543456926123     -1.930960763343     -2.073114796411
 H        -3.776246021705     -4.075141683175     -2.260454705299
 O         0.356149472800      0.606389156134      2.277628749505
 O        -0.292970562138     -0.461006070496      2.325057140760
