 78
 C                  5.50913800   -5.61767900   -0.75658500
 C                  4.25119600   -6.11081100   -0.38643800
 C                  3.15194700   -5.25897500   -0.27380300
 C                  3.32538300   -3.86599000   -0.52904200
 C                  4.60272100   -3.37253900   -0.91023100
 C                  5.68586500   -4.27024900   -1.01978600
 C                  2.22674900   -2.96836000   -0.40734400
 C                  2.38673000   -1.58217900   -0.60935500
 C                  3.66668900   -1.12626400   -1.05400700
 C                  4.72305900   -1.98243400   -1.19465800
 C                  1.84025900   -5.73993400    0.08687500
 C                  0.77835200   -4.90262200    0.16286600
 C                  0.91903200   -3.48982000   -0.09837800
 N                 -0.16230700   -2.73613700   -0.08405700
 C                 -0.05159700   -1.39330200   -0.28087200
 C                  1.22518200   -0.72809600   -0.41298000
 C                 -1.26264900   -0.65560000   -0.30130200
 C                 -1.23381500    0.74634200   -0.41587300
 C                  0.04199200    1.41071700   -0.27138100
 C                  1.25320500    0.67355700   -0.29485600
 C                 -2.39399800    1.60138800   -0.61470400
 C                 -2.23566600    2.98611500   -0.40212400
 C                 -0.93027200    3.50557200   -0.08007200
 N                  0.15133900    2.75219100   -0.06467200
 C                 -3.33365000    3.88425500   -0.52542900
 C                 -3.16257400    5.27531800   -0.25852700
 C                 -1.85371500    5.75391700    0.11536300
 C                 -0.79203700    4.91640800    0.19275700
 C                 -3.67021300    1.14806600   -1.07250100
 C                 -4.72562700    2.00505400   -1.21533000
 C                 -4.60789600    3.39311500   -0.91973800
 C                 -5.69054400    4.29126700   -1.03048900
 C                 -5.51630000    5.63674600   -0.75580100
 C                 -4.26134000    6.12757700   -0.37272000
 C                  2.51528400    1.42947800   -0.05587200
 C                 -2.52618000   -1.41090600   -0.06893800
 C                 -3.00137200   -2.35159100   -0.99032700
 C                 -4.19758100   -3.01945100   -0.76476300
 C                 -4.92585800   -2.76256700    0.39872400
 C                 -4.45165200   -1.84745000    1.33687600
 C                 -3.25802200   -1.17508900    1.09940800
 C                  2.99478700    2.36944600   -0.97524200
 C                  4.18792400    3.04098000   -0.74234000
 C                  4.90492800    2.79241200    0.42948300
 C                  4.42644300    1.87672600    1.36545100
 C                  3.23678500    1.20066400    1.12049100
 C                 -6.18979400   -3.52374400    0.66498400
 C                  6.22222100    3.47103300    0.65721500
 F                 -6.85752200   -3.82566500   -0.47344400
 F                 -7.04705600   -2.84218500    1.45932200
 F                 -5.94876800   -4.70688800    1.28946100
 F                  6.48501700    3.66063800    1.97124300
 F                  7.25913500    2.74379600    0.16260200
 F                  6.28971000    4.68320100    0.05967300
 H                 -0.21311200   -5.26084000    0.41230500
 H                  1.71881300   -6.79936500    0.28500800
 H                  4.12413700   -7.16901800   -0.18636500
 H                  6.34720900   -6.29943800   -0.84045900
 H                  6.65796700   -3.89097800   -1.31454800
 H                  5.67825000   -1.60198400   -1.53975100
 H                  3.80815100   -0.08905600   -1.30735900
 H                  2.43302300    2.56425800   -1.87962100
 H                  4.55716600    3.76168700   -1.46081300
 H                  4.97717300    1.69766000    2.28012100
 H                  2.86201500    0.48752000    1.84401400
 H                 -2.43576000   -2.54615000   -1.89231400
 H                 -4.56946700   -3.73186500   -1.49023100
 H                 -5.01590400   -1.65438800    2.24026900
 H                 -2.89100100   -0.45566100    1.82065800
 H                 -3.80917700    0.11245200   -1.33410600
 H                 -5.67797400    1.62710500   -1.57086100
 H                 -6.66035200    3.91393700   -1.33514000
 H                 -6.35405800    6.31878000   -0.84056800
 H                 -4.13626800    7.18426900   -0.16360200
 H                 -1.73410100    6.81187300    0.32229800
 H                  0.19749400    5.27313000    0.45183700
 O                 -0.31451800   -0.52780500    2.67994600
 O                  0.28536900    0.51963300    2.68361700
