 78
 C                  5.72674900   -5.38797000   -0.87961100
 C                  4.52042900   -5.93294000   -0.46400900
 C                  3.37024600   -5.12353600   -0.32821000
 C                  3.47403600   -3.72820200   -0.61319800
 C                  4.71591000   -3.18085800   -1.04576800
 C                  5.82949600   -4.02598100   -1.17421500
 C                  2.33923600   -2.88513400   -0.47503100
 C                  2.42993300   -1.47746600   -0.70037800
 C                  3.66988400   -0.97551400   -1.19272200
 C                  4.75979800   -1.78722900   -1.35871300
 C                  2.10977000   -5.64783200    0.07616600
 C                  1.00452100   -4.83733800    0.16907000
 C                  1.08931200   -3.45053800   -0.11554100
 N                 -0.05055700   -2.70885000   -0.07848300
 C                  0.00407500   -1.39795000   -0.29608400
 C                  1.24923500   -0.68227900   -0.46193500
 C                 -1.22902500   -0.69774000   -0.31701300
 C                 -1.25830800    0.70093100   -0.46621700
 C                 -0.01455400    1.41548600   -0.28610800
 C                  1.21884000    0.71609400   -0.31028400
 C                 -2.43742700    1.49713600   -0.70725500
 C                 -2.34925500    2.90284500   -0.46955900
 C                 -1.10261400    3.46564500   -0.09484200
 N                  0.03784000    2.72446600   -0.05659200
 C                 -3.48363200    3.74610700   -0.60926300
 C                 -3.38341600    5.13878600   -0.31045700
 C                 -2.12675700    5.66016100    0.10913900
 C                 -1.02148400    4.84968400    0.20348900
 C                 -3.67276700    0.99804000   -1.21361400
 C                 -4.76179100    1.81047800   -1.38202000
 C                 -4.72146700    3.20147800   -1.05673500
 C                 -5.83469700    4.04683000   -1.18647000
 C                 -5.73562600    5.40617600   -0.87841400
 C                 -4.53332800    5.94840200   -0.44796600
 C                  2.45526900    1.49453600   -0.03500000
 C                 -2.46701000   -1.47563400   -0.04776000
 C                 -2.89701700   -2.50696400   -0.89323300
 C                 -4.07471100   -3.19221000   -0.62805200
 C                 -4.82772800   -2.86718000    0.50231100
 C                 -4.39763900   -1.86276300    1.36796300
 C                 -3.22575000   -1.17012100    1.08865300
 C                  2.88737300    2.52682700   -0.87695100
 C                  4.06275800    3.21514900   -0.60536100
 C                  4.80671600    2.89499400    0.53126200
 C                  4.37404200    1.88800500    1.39406000
 C                  3.20606500    1.19288500    1.10845100
 C                 -6.06876700   -3.64847700    0.81373600
 C                  6.10459000    3.59433300    0.80356800
 F                 -6.71932600   -4.04647300   -0.30508300
 F                 -6.95188000   -2.94350600    1.55719900
 F                 -5.79417200   -4.77946000    1.51592900
 F                  6.33424900    3.75413500    2.12837800
 F                  7.16620500    2.89910800    0.31564800
 F                  6.16134700    4.82220800    0.23960700
 H                  0.03710400   -5.23563100    0.45045700
 H                  2.03022000   -6.70642900    0.29656900
 H                  4.44774100   -6.99159500   -0.24107800
 H                  6.59778200   -6.02467800   -0.98115000
 H                  6.77392000   -3.61093300   -1.50801500
 H                  5.68400900   -1.37071200   -1.74391700
 H                  3.75659300    0.06517000   -1.46188200
 H                  2.30562200    2.77880700   -1.75367900
 H                  4.39693100    4.00385100   -1.26703300
 H                  4.94361600    1.65391300    2.28456600
 H                  2.86789200    0.40840400    1.77424900
 H                 -2.31325600   -2.75667400   -1.76922200
 H                 -4.41314000   -3.97245700   -1.29804400
 H                 -4.97880400   -1.61743000    2.24758000
 H                 -2.89376800   -0.38154200    1.75270500
 H                 -3.75628900   -0.04076700   -1.49139100
 H                 -5.68252800    1.39679600   -1.77843700
 H                 -6.77606000    3.63411800   -1.53162700
 H                 -6.60647800    6.04296300   -0.98102800
 H                 -4.46356400    7.00497000   -0.21444800
 H                 -2.04985200    6.71670300    0.34009800
 H                 -0.05676900    5.24629100    0.49631500
 O                  0.38554400   -0.44623900    2.67534500
 O                 -0.41439300    0.45605500    2.67710000
