 78
 C                  5.53155500   -5.58776700   -0.82909800
 C                  4.27832300   -6.09663600   -0.47071300
 C                  3.17628200   -5.25129000   -0.32259100
 C                  3.34465200   -3.85039900   -0.52888000
 C                  4.61818700   -3.34105000   -0.89983200
 C                  5.70230000   -4.23010900   -1.04648400
 C                  2.24453900   -2.96098400   -0.36958900
 C                  2.39962200   -1.56515300   -0.52747700
 C                  3.67673100   -1.09236500   -0.96472500
 C                  4.73325200   -1.94147700   -1.13783300
 C                  1.86989800   -5.74796000    0.02558100
 C                  0.80584700   -4.91509500    0.13862400
 C                  0.94522700   -3.49608700   -0.06681400
 N                 -0.14174700   -2.74359600   -0.00508000
 C                 -0.03269100   -1.40299300   -0.14328900
 C                  1.23742100   -0.72960700   -0.29652400
 C                 -1.24273500   -0.66369100   -0.12112200
 C                 -1.23313800    0.72981600   -0.31463900
 C                  0.03096300    1.40074400   -0.11004600
 C                  1.24439300    0.66706700   -0.12733700
 C                 -2.39108800    1.56635500   -0.55343000
 C                 -2.24298700    2.95870300   -0.36480700
 C                 -0.95390500    3.48935900   -0.01243000
 N                  0.13386000    2.73901200    0.05805900
 C                 -3.34083500    3.84821900   -0.53699700
 C                 -3.18255400    5.24478500   -0.29649300
 C                 -1.88831100    5.73655400    0.10144800
 C                 -0.82567800    4.90404900    0.22890500
 C                 -3.65409200    1.09712700   -1.03322700
 C                 -4.70721300    1.94718500   -1.22075700
 C                 -4.60182700    3.34275000   -0.95391700
 C                 -5.68367500    4.23223600   -1.11365300
 C                 -5.52302200    5.58566800   -0.86415500
 C                 -4.28236400    6.09030300   -0.45896400
 C                  2.50500300    1.43651500    0.07522200
 C                 -2.51105600   -1.42124400    0.07726300
 C                 -2.95538300   -2.35613800   -0.86568600
 C                 -4.17274500   -3.00127400   -0.69522300
 C                 -4.94849600   -2.72988000    0.43380200
 C                 -4.50251000   -1.82274200    1.39275300
 C                 -3.28865500   -1.16925600    1.21069400
 C                  2.94956500    2.35977200   -0.87787500
 C                  4.15491500    3.02659700   -0.70107200
 C                  4.91325100    2.79223800    0.44718000
 C                  4.46500600    1.89644300    1.41662400
 C                  3.26442200    1.22146100    1.22864000
 C                 -6.23672900   -3.47024100    0.63912400
 C                  6.24232200    3.46732000    0.61368700
 F                 -6.87073600   -3.72893000   -0.52884600
 F                 -7.10582300   -2.79061200    1.42109200
 F                 -6.03976200   -4.67317100    1.23964000
 F                  6.55763800    3.67232300    1.91325300
 F                  7.25372600    2.72739800    0.08736000
 F                  6.29096700    4.67093500   -0.00204200
 H                 -0.18323100   -5.28374000    0.38119500
 H                  1.75057100   -6.81401700    0.18508500
 H                  4.15447900   -7.16142600   -0.30742300
 H                  6.37145100   -6.26295200   -0.94121100
 H                  6.67145500   -3.83796900   -1.33370100
 H                  5.68585700   -1.54711200   -1.47409200
 H                  3.81671400   -0.04827600   -1.18614600
 H                  2.35605300    2.54318200   -1.76401100
 H                  4.50045900    3.73356800   -1.44437000
 H                  5.04816800    1.73078400    2.31346700
 H                  2.90016400    0.52770200    1.97439800
 H                 -2.35366000   -2.56140500   -1.74110400
 H                 -4.52335400   -3.70761700   -1.43696200
 H                 -5.10416100   -1.61970600    2.26929400
 H                 -2.93073300   -0.46027500    1.94496400
 H                 -3.78344900    0.05573000   -1.27526700
 H                 -5.64937500    1.55784100   -1.59059600
 H                 -6.64329200    3.84392800   -1.43602000
 H                 -6.36142700    6.26093600   -0.98659300
 H                 -4.16699600    7.15170100   -0.26947600
 H                 -1.77688100    6.79925300    0.28700900
 H                  0.15470600    5.27006100    0.50804900
 O                 -0.40274000   -0.50783100    2.15124600
 O                  0.37219800    0.47951100    2.16817000
