 78
 C                  4.65458800   -5.70167800   -2.41265400
 C                  3.30018300   -5.91957000   -2.66053400
 C                  2.30113800   -5.02373800   -2.13858700
 C                  2.72341800   -3.89466600   -1.37015400
 C                  4.11498200   -3.68872000   -1.10654800
 C                  5.07443700   -4.62250200   -1.65506000
 C                  1.76531500   -2.98358700   -0.85646800
 C                  2.18033700   -1.82517700   -0.12036300
 C                  3.54162000   -1.69191900    0.17507300
 C                  4.49188600   -2.60722500   -0.31560800
 C                  0.93332000   -5.22904200   -2.34831200
 C                 -0.01562100   -4.35648500   -1.79536500
 C                  0.37825600   -3.24611400   -1.05486600
 N                 -0.61033600   -2.45014800   -0.47807600
 C                 -0.22478100   -1.36136400    0.12310500
 C                  1.11884900   -0.91743000    0.26319900
 C                 -1.22994900   -0.45172300    0.86418400
 C                 -1.15738000    0.93780000    0.24055700
 C                  0.17693300    1.37278800    0.14437100
 C                  1.17680900    0.46332200    0.88124400
 C                 -2.17613000    1.81855300   -0.18154400
 C                 -1.74730600    3.02032500   -0.83569700
 C                 -0.35768500    3.30089300   -0.95291000
 N                  0.58073100    2.49807200   -0.41585200
 C                 -2.69032900    3.94588400   -1.36589200
 C                 -2.24451000    5.11681800   -2.04611100
 C                 -0.83469000    5.35251800   -2.16580700
 C                  0.06969000    4.48714100   -1.63519400
 C                 -3.59381500    1.64474500    0.00505700
 C                 -4.49055100    2.54029300   -0.48790500
 C                 -4.08436400    3.70676500   -1.21262700
 C                 -5.00239800    4.62155400   -1.74674000
 C                 -4.55958300    5.75524300   -2.42336800
 C                 -3.19785400    6.00301500   -2.57075200
 C                  2.54155600    1.09466600    1.05169500
 C                 -2.59497100   -1.08513500    1.03687100
 C                 -3.29967600   -1.52894900   -0.09083300
 C                 -4.57162200   -2.06367900    0.04237600
 C                 -5.15363400   -2.16699500    1.30810700
 C                 -4.46006600   -1.73735400    2.43394800
 C                 -3.18285300   -1.19638100    2.29684500
 C                  3.26784200    1.46453700   -0.08738300
 C                  4.54205200    1.99721200    0.03478100
 C                  5.09951000    2.17702700    1.30254300
 C                  4.38083300    1.82518300    2.44044300
 C                  3.10200100    1.28601100    2.31390200
 C                 -6.51538900   -2.78360300    1.43649200
 C                  6.50386700    2.69014900    1.42806700
 F                 -7.35908800   -2.35813800    0.46551400
 F                 -7.10300100   -2.50898200    2.62143700
 F                 -6.46768100   -4.13659900    1.33050600
 F                  6.73036100    3.29519100    2.61559800
 F                  7.41561700    1.68788900    1.32694600
 F                  6.81248100    3.58397500    0.46004500
 H                 -1.07561300   -4.53839000   -1.92524800
 H                  0.60457400   -6.08335200   -2.92854700
 H                  2.97867100   -6.77200600   -3.24705100
 H                  5.38763900   -6.39060500   -2.81645800
 H                  6.12737200   -4.45880000   -1.45860500
 H                  5.53838300   -2.45688000   -0.07745600
 H                  3.89131400   -0.88144700    0.79182600
 H                  2.84220800    1.31851800   -1.06959400
 H                  5.10151700    2.27440200   -0.84940500
 H                  4.81225300    1.96955200    3.42235600
 H                  2.55369300    1.00329900    3.20087800
 H                 -2.86239400   -1.43356000   -1.07320300
 H                 -5.11763200   -2.38675800   -0.83498400
 H                 -4.91333400   -1.81126800    3.41358700
 H                 -2.65795500   -0.84593700    3.17350100
 H                 -3.96028700    0.80244200    0.56435900
 H                 -5.55055500    2.37958100   -0.32351500
 H                 -6.06420600    4.43833100   -1.62553300
 H                 -5.28023900    6.45246800   -2.83404700
 H                 -2.86062100    6.89093300   -3.09385000
 H                 -0.50138500    6.24532500   -2.68330300
 H                  1.13591200    4.66391200   -1.70705300
 O                 -0.66247700   -0.36389200    2.22587900
 O                  0.59924400    0.36118500    2.24224200

