78
C        -5.531554897885      5.587767276293     -0.829098036818
 C        -4.278322818795      6.096635671294     -0.470712961755
 C        -3.176281897135      5.251290200734     -0.322591389872
 C        -3.344652485796      3.850398772295     -0.528880486441
 C        -4.618186723755      3.341049672715     -0.899831672905
 C        -5.702299534267      4.230108906305     -1.046484495448
 C        -2.244538695244      2.960984137999     -0.369588664157
 C        -2.399622125690      1.565152638550     -0.527476536437
 C        -3.676730595868      1.092364979859     -0.964725266959
 C        -4.733251767929      1.941476985637     -1.137832901842
 C        -1.869897846077      5.747960066171      0.025580913113
 C        -0.805846969148      4.915095208380      0.138624424775
 C        -0.945226833021      3.496086720778     -0.066814236391
 N         0.141747122251      2.743596367010     -0.005080051308
 C         0.032690919016      1.402993373238     -0.143288725006
 C        -1.237421412343      0.729606550958     -0.296524337953
 C         1.242735229974      0.663690877581     -0.121122173221
 C         1.233138135578     -0.729815740002     -0.314639016348
 C        -0.030962713242     -1.400743608077     -0.110046285172
 C        -1.244392967548     -0.667066874725     -0.127337157418
 C         2.391087936639     -1.566354733378     -0.553430249180
 C         2.242987195288     -2.958703315427     -0.364807220495
 C         0.953904751894     -3.489359497275     -0.012430092326
 N        -0.133860234937     -2.739011998996      0.058059141255
 C         3.340834572763     -3.848218768566     -0.536996931359
 C         3.182553848317     -5.244785210492     -0.296493429242
 C         1.888310688842     -5.736553704307      0.101448297459
 C         0.825678319052     -4.904048538850      0.228904508636
 C         3.654091828566     -1.097127024413     -1.033226643067
 C         4.707212745999     -1.947185294296     -1.220757024000
 C         4.601826823980     -3.342749876760     -0.953917462730
 C         5.683674824823     -4.232235637765     -1.113652630740
 C         5.523021968277     -5.585668136132     -0.864155164482
 C         4.282363758856     -6.090302954693     -0.458963577169
 C        -2.505003025817     -1.436514743968      0.075221973254
 C         2.511056315683      1.421243573387      0.077263364835
 C         2.955382966558      2.356137671021     -0.865685645520
 C         4.172744535569      3.001274108599     -0.695222679584
 C         4.948495889664      2.729879993159      0.433802467640
 C         4.502509971893      1.822742330343      1.392753265030
 C         3.288655508972      1.169256444771      1.210694010237
 C        -2.949564604915     -2.359772049522     -0.877874575810
 C        -4.154915052469     -3.026596619294     -0.701071675296
 C        -4.913251295680     -2.792238029315      0.447179596035
 C        -4.465006140476     -1.896443438768      1.416624449014
 C        -3.264422388943     -1.221460506893      1.228640441500
 C         6.236728723170      3.470240832655      0.639124254197
 C        -6.242322179207     -3.467320504715      0.613686901464
 F         6.870735833738      3.728929990647     -0.528846007371
 F         7.105823285949      2.790611867746      1.421092064660
 F         6.039761609703      4.673170839522      1.239639638542
 F        -6.557638400036     -3.672323354051      1.913253186798
 F        -7.253725829268     -2.727397998578      0.087359614102
 F        -6.290967270581     -4.670935161058     -0.002042347793
 H         0.183230532985      5.283739648939      0.381195237572
 H        -1.750571083819      6.814016609398      0.185085165228
 H        -4.154478608273      7.161425628867     -0.307422858502
 H        -6.371451473039      6.262952099857     -0.941210796040
 H        -6.671455527928      3.837969161626     -1.333700961868
 H        -5.685857416229      1.547112378876     -1.474091908763
 H        -3.816714430860      0.048275939785     -1.186145781054
 H        -2.356053087335     -2.543182463070     -1.764010782656
 H        -4.500459076819     -3.733567556846     -1.444369866363
 H        -5.048167798493     -1.730783512745      2.313466651685
 H        -2.900164160699     -0.527701807176      1.974398142407
 H         2.353659904566      2.561405241256     -1.741104383979
 H         4.523353801846      3.707617426103     -1.436961787584
 H         5.104160658318      1.619705908815      2.269294213725
 H         2.930732558547      0.460275280472      1.944964506878
 H         3.783449282443     -0.055729945536     -1.275266912318
 H         5.649374880954     -1.557840827690     -1.590595838692
 H         6.643291817162     -3.843927744647     -1.436020471286
 H         6.361427427886     -6.260936146355     -0.986592821978
 H         4.166996263447     -7.151701309686     -0.269476394690
 H         1.776880742850     -6.799252723967      0.287008737906
 H        -0.154705586804     -5.270061058341      0.508049084214
 O         0.402739889186      0.507830664203      2.151246224072
 O        -0.372198214258     -0.479510548762      2.168170491342
