78
 C         5.718841227204     -5.391830877875     -0.832247062683
 C         4.483122902765     -5.942430565186     -0.474699440825
 C         3.351474373662     -5.135566703759     -0.335557244258
 C         3.471225957723     -3.730936871069     -0.549676220668
 C         4.726948138064     -3.179310504576     -0.920966676342
 C         5.842182982804     -4.030520581347     -1.058536170703
 C         2.340543391092     -2.879570973358     -0.397007131385
 C         2.447652856082     -1.480006258055     -0.560445144989
 C         3.707384000424     -0.965491497361     -1.000922047504
 C         4.793015816088     -1.778220239958     -1.168392464992
 C         2.062127190800     -5.675845673670      0.011218079781
 C         0.969373492449     -4.880047832094      0.117252149736
 C         1.060026235344     -3.457903183517     -0.093553449274
 N        -0.052192822859     -2.742982399405     -0.035827111994
 C         0.011382893664     -1.399608443281     -0.176403204535
 C         1.257968773196     -0.683788091848     -0.330480235981
 C        -1.222757119547     -0.701246021160     -0.155047724665
 C        -1.259288419651      0.692124586789     -0.346316656235
 C        -0.018376323075      1.405129127840     -0.142077351990
 C         1.218791814849      0.712258799041     -0.160518049299
 C        -2.444983021268      1.489783430170     -0.581667100960
 C        -2.344709086030      2.885218031168     -0.385765720768
 C        -1.073774446709      3.458382545106     -0.033996026611
 N         0.039436664663      2.745668390203      0.029883372941
 C        -3.473660177820      3.736650892936     -0.548600458127
 C        -3.363989095333      5.136051004255     -0.298255722029
 C        -2.086069796035      5.670586962517      0.097302469616
 C        -0.994183508270      4.875274189129      0.214889703215
 C        -3.691213502723      0.979784120428     -1.063427607827
 C        -4.773964362072      1.793570284051     -1.242996368121
 C        -4.717466500299      3.189782221521     -0.964983971155
 C        -5.830996733415      4.041370378714     -1.113094172841
 C        -5.717750506505      5.397539903228     -0.852786874800
 C        -4.493987745797      5.943022049770     -0.449135116540
 C         2.453862327571      1.521891450051      0.041760191582
 C        -2.465215528545     -1.500444268895      0.043804317117
 C        -2.876505845792     -2.452267358150     -0.897162913244
 C        -4.070198985801     -3.139722606488     -0.725111759909
 C        -4.854963412629     -2.893514512967      0.403495909197
 C        -4.441728057999     -1.968263019435      1.359832742244
 C        -3.251689053404     -1.272882716685      1.176334702888
 C         2.865349370239      2.462297307577     -0.909548539062
 C         4.050107514865      3.165305725448     -0.735202916289
 C         4.820869001534      2.949454879036      0.408630785845
 C         4.404374489846      2.037299196658      1.376831667004
 C         3.223894733754      1.326931538139      1.191657740006
 C        -6.115507834201     -3.679204002470      0.611961736324
 C         6.131498282366      3.661370507303      0.567435950290
 F        -6.742731161214     -3.961353500575     -0.554204582086
 F        -7.006583731117     -3.030575208169      1.395539324920
 F        -5.873961746986     -4.873822662522      1.212723422723
 F         6.465350002805      3.846712962550      1.865044831192
 F         7.154312098996      2.964904650354      0.004908263229
 F         6.132046251824      4.879527217747     -0.021557978624
 H        -0.006990829997     -5.281747804787      0.358847795989
 H         1.979560169173     -6.744663411700      0.175377690531
 H         4.396300350374     -7.009871389928     -0.304963010906
 H         6.582496919701     -6.037592652025     -0.936914045334
 H         6.797809530826     -3.606370848691     -1.345560707026
 H         5.731355679809     -1.352966859530     -1.507060416808
 H         3.810862937699      0.081622056921     -1.228548385639
 H         2.262747975942      2.630529806557     -1.792550062498
 H         4.370804637589      3.885120340122     -1.477337079888
 H         4.996713356119      1.885281615749      2.270013159196
 H         2.883908165008      0.619733930946      1.936249647883
 H        -2.267873686999     -2.638552994731     -1.772044884417
 H        -4.395520976917     -3.859902460304     -1.465080459821
 H        -5.050172822900     -1.784087657641      2.235835032034
 H        -2.918702833974     -0.550197742464      1.908985147284
 H        -3.784054940233     -0.063929927808     -1.312568358027
 H        -5.702436454494      1.374139599569     -1.614499425092
 H        -6.777518208724      3.621719527588     -1.434836537816
 H        -6.580327899676      6.043347500269     -0.965850063679
 H        -4.415557590788      7.006368917147     -0.251851733235
 H        -2.011237543320      6.735390488260      0.289059102897
 H        -0.026130076098      5.273806052930      0.492546677181
 O        -0.387008570505     -0.517873590464      2.121156510382
 O         0.355550452806      0.493895726163      2.137773264277
